7
test
C -0.16628627363957094 0.33584318963281135 -0.16291861193451496 
C 0.9579547438344207 0.42097069729554165 0.5122814394908914 
C 0.3443396068281146 0.4300851569040134 1.0443260426256757 
C 0.26052779933394277 1.0331269406063086 0.31738977609896324 
C -0.3504761430784811 0.3773841739107553 0.6270349329943514 
C 0.3106347401526932 -0.262357136542434 0.3973671506112936 
C 0.6423740050422992 0.362640989459706 -0.23383168232149387 
